16
Phase I Ammonia Crystal
 N    1.094035    1.094035    1.094035
 N    1.498465    4.090965    3.686535
 N    4.090965    3.686535    1.498465
 N    3.686535    1.498465    4.090965
 H    2.022150    1.259955    0.642940
 H    0.570350    3.925045    3.235440
 H    3.162850    3.852455    1.949560
 H    4.614650    1.332545    4.542060
 H    0.642940    2.022150    1.259955
 H    3.235440    0.570350    3.925045
 H    1.949560    3.162850    3.852455
 H    4.542060    4.614650    1.332545
 H    1.259955    0.642940    2.022150
 H    3.925045    3.235440    0.570350
 H    3.852455    1.949560    3.162850
 H    1.332545    4.542060    4.614650
